Test_Network/network_26/Feeder_4/Lines.txt
New Line.LINE44 Bus1=43 Bus2=45 phases=3 Linecode=4c_.25 Length=10.0833 Units=m
New Line.LINE46 Bus1=45 Bus2=47 phases=3 Linecode=4c_.25 Length=5.4379 Units=m
New Line.LINE50 Bus1=47 Bus2=51 phases=3 Linecode=2c_.04 Length=6.3571 Units=m
New Line.LINE58 Bus1=54 Bus2=59 phases=3 Linecode=2c_.04 Length=6.5276 Units=m
New Line.LINE103 Bus1=97 Bus2=104 phases=3 Linecode=2c_.04 Length=3.5564 Units=m
New Line.LINE105 Bus1=98 Bus2=106 phases=3 Linecode=2c_.04 Length=4.3132 Units=m
New Line.LINE113 Bus1=108 Bus2=114 phases=3 Linecode=2c_.04 Length=4.3549 Units=m
New Line.LINE115 Bus1=109 Bus2=116 phases=3 Linecode=2c_.04 Length=3.113 Units=m
New Line.LINE160 Bus1=154 Bus2=161 phases=3 Linecode=4c_.25 Length=4.4572 Units=m
New Line.LINE193 Bus1=187 Bus2=194 phases=3 Linecode=2c_.04 Length=2.7077 Units=m
New Line.LINE195 Bus1=188 Bus2=196 phases=3 Linecode=2c_.04 Length=4.1456 Units=m
New Line.LINE199 Bus1=191 Bus2=200 phases=3 Linecode=2c_.04 Length=5.0178 Units=m
New Line.LINE201 Bus1=192 Bus2=202 phases=3 Linecode=4c_.25 Length=11.4851 Units=m
New Line.LINE210 Bus1=202 Bus2=211 phases=3 Linecode=4c_.25 Length=1.3794 Units=m
New Line.LINE214 Bus1=207 Bus2=215 phases=3 Linecode=2c_.04 Length=2.9792 Units=m
New Line.LINE239 Bus1=230 Bus2=240 phases=3 Linecode=4c_.25 Length=6.3272 Units=m
New Line.LINE246 Bus1=237 Bus2=247 phases=3 Linecode=2c_.04 Length=5.7233 Units=m
New Line.LINE278 Bus1=269 Bus2=279 phases=3 Linecode=2c_.04 Length=9.0513 Units=m
New Line.LINE283 Bus1=273 Bus2=284 phases=3 Linecode=4c_.25 Length=2.0307 Units=m
New Line.LINE295 Bus1=284 Bus2=296 phases=3 Linecode=4c_.25 Length=16.8578 Units=m
New Line.LINE308 Bus1=296 Bus2=309 phases=3 Linecode=4c_.25 Length=4.6407 Units=m
New Line.LINE320 Bus1=307 Bus2=321 phases=3 Linecode=2c_.04 Length=8.9534 Units=m
New Line.LINE365 Bus1=351 Bus2=366 phases=3 Linecode=2c_.04 Length=3.5182 Units=m
New Line.LINE366 Bus1=351 Bus2=367 phases=3 Linecode=2c_.04 Length=3.5182 Units=m
New Line.LINE367 Bus1=352 Bus2=368 phases=3 Linecode=2c_.04 Length=5.7275 Units=m
New Line.LINE368 Bus1=352 Bus2=369 phases=3 Linecode=2c_.04 Length=5.7275 Units=m
New Line.LINE377 Bus1=360 Bus2=378 phases=3 Linecode=2c_.04 Length=3.0639 Units=m
New Line.LINE404 Bus1=392 Bus2=405 phases=3 Linecode=2c_.04 Length=3.6684 Units=m
New Line.LINE409 Bus1=397 Bus2=410 phases=3 Linecode=2c_.04 Length=2.02 Units=m
New Line.LINE410 Bus1=397 Bus2=411 phases=3 Linecode=2c_.04 Length=2.02 Units=m
New Line.LINE411 Bus1=398 Bus2=412 phases=3 Linecode=2c_.04 Length=3.7331 Units=m
New Line.LINE412 Bus1=398 Bus2=413 phases=3 Linecode=2c_.04 Length=3.7331 Units=m
New Line.LINE424 Bus1=416 Bus2=425 phases=3 Linecode=4c_.25 Length=5.7561 Units=m
New Line.LINE431 Bus1=422 Bus2=432 phases=3 Linecode=4c_.12 Length=20.749 Units=m
New Line.LINE435 Bus1=425 Bus2=436 phases=3 Linecode=4c_.25 Length=5.5845 Units=m
New Line.LINE443 Bus1=432 Bus2=444 phases=3 Linecode=4c_.12 Length=3.7383 Units=m
New Line.LINE451 Bus1=440 Bus2=452 phases=3 Linecode=2c_.04 Length=2.8778 Units=m
New Line.LINE456 Bus1=444 Bus2=457 phases=3 Linecode=2c_.04 Length=5.9176 Units=m
New Line.LINE457 Bus1=444 Bus2=458 phases=3 Linecode=4c_.12 Length=1.7394 Units=m
New Line.LINE472 Bus1=458 Bus2=473 phases=3 Linecode=4c_.12 Length=7.9683 Units=m
New Line.LINE477 Bus1=465 Bus2=478 phases=3 Linecode=2c_.04 Length=4.827 Units=m
New Line.LINE496 Bus1=483 Bus2=497 phases=3 Linecode=2c_.04 Length=3.7578 Units=m
New Line.LINE507 Bus1=492 Bus2=508 phases=3 Linecode=2c_.04 Length=4.9729 Units=m
New Line.LINE519 Bus1=503 Bus2=520 phases=3 Linecode=4c_.12 Length=3.3181 Units=m
New Line.LINE523 Bus1=507 Bus2=524 phases=3 Linecode=2c_.04 Length=9.8871 Units=m
New Line.LINE537 Bus1=520 Bus2=538 phases=3 Linecode=4c_.12 Length=1.3457 Units=m
New Line.LINE562 Bus1=544 Bus2=563 phases=3 Linecode=4c_.3 Length=1.6611 Units=m
New Line.LINE565 Bus1=547 Bus2=566 phases=3 Linecode=2c_.04 Length=2.9529 Units=m
New Line.LINE566 Bus1=547 Bus2=567 phases=3 Linecode=2c_.04 Length=2.9529 Units=m
New Line.LINE631 Bus1=617 Bus2=632 phases=3 Linecode=2c_.04 Length=5.0365 Units=m
New Line.LINE636 Bus1=622 Bus2=637 phases=3 Linecode=2c_.04 Length=10.1351 Units=m
New Line.LINE655 Bus1=640 Bus2=656 phases=3 Linecode=4c_.12 Length=24.0591 Units=m
New Line.LINE665 Bus1=649 Bus2=666 phases=3 Linecode=2c_.04 Length=4.4506 Units=m
New Line.LINE666 Bus1=649 Bus2=667 phases=3 Linecode=2c_.04 Length=4.4506 Units=m
New Line.LINE674 Bus1=656 Bus2=675 phases=3 Linecode=4c_.12 Length=2.9748 Units=m
New Line.LINE693 Bus1=675 Bus2=694 phases=3 Linecode=2c_.04 Length=5.7031 Units=m
New Line.LINE727 Bus1=710 Bus2=728 phases=3 Linecode=4c_.12 Length=17.846 Units=m
New Line.LINE740 Bus1=724 Bus2=741 phases=3 Linecode=2c_.04 Length=4.293 Units=m
New Line.LINE742 Bus1=725 Bus2=743 phases=3 Linecode=2c_.04 Length=1.8769 Units=m
New Line.LINE770 Bus1=757 Bus2=771 phases=3 Linecode=2c_.04 Length=5.1535 Units=m
New Line.LINE784 Bus1=770 Bus2=785 phases=3 Linecode=2c_.04 Length=5.3109 Units=m
New Line.LINE797 Bus1=782 Bus2=798 phases=3 Linecode=2c_.04 Length=4.0706 Units=m
New Line.LINE812 Bus1=797 Bus2=813 phases=3 Linecode=2c_.04 Length=7.2653 Units=m
New Line.LINE813 Bus1=797 Bus2=814 phases=3 Linecode=4c_.06 Length=1.8591 Units=m
New Line.LINE815 Bus1=800 Bus2=816 phases=3 Linecode=2c_.04 Length=3.9397 Units=m
New Line.LINE816 Bus1=800 Bus2=817 phases=3 Linecode=2c_.04 Length=3.9397 Units=m
New Line.LINE828 Bus1=813 Bus2=829 phases=3 Linecode=2c_.04 Length=5.2662 Units=m
New Line.LINE831 Bus1=814 Bus2=832 phases=3 Linecode=4c_.06 Length=16.9748 Units=m
New Line.LINE872 Bus1=858 Bus2=873 phases=3 Linecode=2c_.04 Length=5.52 Units=m
New Line.LINE877 Bus1=862 Bus2=878 phases=3 Linecode=2c_.04 Length=4.0492 Units=m
New Line.LINE928 Bus1=915 Bus2=929 phases=3 Linecode=2c_.04 Length=1.4203 Units=m
New Line.LINE955 Bus1=945 Bus2=956 phases=3 Linecode=2c_.04 Length=3.5946 Units=m
New Line.LINE956 Bus1=945 Bus2=957 phases=3 Linecode=2c_.04 Length=3.5946 Units=m
New Line.LINE960 Bus1=948 Bus2=961 phases=3 Linecode=2c_.04 Length=5.896 Units=m
New Line.LINE961 Bus1=948 Bus2=962 phases=3 Linecode=2c_.04 Length=5.896 Units=m
New Line.LINE1019 Bus1=1009 Bus2=1020 phases=3 Linecode=2c_.04 Length=6.6052 Units=m
New Line.LINE1020 Bus1=1009 Bus2=1021 phases=3 Linecode=2c_.04 Length=6.6052 Units=m
New Line.LINE1046 Bus1=1036 Bus2=1047 phases=3 Linecode=4c_.06 Length=2.3391 Units=m
New Line.LINE1054 Bus1=1044 Bus2=1055 phases=3 Linecode=2c_.04 Length=6.4201 Units=m
New Line.LINE1073 Bus1=1062 Bus2=1074 phases=3 Linecode=4c_.06 Length=1.9876 Units=m
New Line.LINE1109 Bus1=1100 Bus2=1110 phases=3 Linecode=2c_.04 Length=7.853 Units=m
New Line.LINE1110 Bus1=1100 Bus2=1111 phases=3 Linecode=2c_.04 Length=7.853 Units=m
New Line.LINE1203 Bus1=1196 Bus2=1204 phases=3 Linecode=2c_.04 Length=4.8154 Units=m
New Line.LINE1205 Bus1=1197 Bus2=1206 phases=3 Linecode=2c_.04 Length=5.1199 Units=m
New Line.LINE1209 Bus1=1200 Bus2=1210 phases=3 Linecode=3c_.04 Length=5.031 Units=m
New Line.LINE1225 Bus1=1218 Bus2=1226 phases=3 Linecode=2c_.04 Length=5.6364 Units=m
New Line.LINE1237 Bus1=1230 Bus2=1238 phases=3 Linecode=2c_.04 Length=2.9033 Units=m
New Line.LINE1238 Bus1=1230 Bus2=1239 phases=3 Linecode=2c_.04 Length=2.9033 Units=m
New Line.LINE1284 Bus1=1278 Bus2=1285 phases=3 Linecode=2c_.04 Length=4.25 Units=m
New Line.LINE1291 Bus1=1284 Bus2=1292 phases=3 Linecode=2c_.04 Length=5.6122 Units=m
New Line.LINE1295 Bus1=1288 Bus2=1296 phases=3 Linecode=2c_.04 Length=5.4356 Units=m
New Line.LINE1299 Bus1=1290 Bus2=1300 phases=3 Linecode=2c_.04 Length=5.8275 Units=m
New Line.LINE1330 Bus1=1323 Bus2=1331 phases=3 Linecode=2c_.04 Length=3.4503 Units=m
New Line.LINE1334 Bus1=1326 Bus2=1335 phases=3 Linecode=2c_.04 Length=4.095 Units=m
New Line.LINE1365 Bus1=1358 Bus2=1366 phases=3 Linecode=2c_.04 Length=4.4487 Units=m
New Line.LINE1371 Bus1=1363 Bus2=1372 phases=3 Linecode=2c_.04 Length=4.3293 Units=m
New Line.LINE1394 Bus1=1387 Bus2=1395 phases=3 Linecode=2c_.04 Length=5.0988 Units=m
New Line.LINE1396 Bus1=1388 Bus2=1397 phases=3 Linecode=2c_.04 Length=3.9097 Units=m
New Line.LINE1428 Bus1=1423 Bus2=1429 phases=3 Linecode=2c_.04 Length=1.733 Units=m
New Line.LINE1442 Bus1=1437 Bus2=1443 phases=3 Linecode=2c_.04 Length=6.4539 Units=m
New Line.LINE1464 Bus1=1461 Bus2=1465 phases=3 Linecode=2c_.04 Length=5.5541 Units=m
New Line.LINE1478 Bus1=1475 Bus2=1479 phases=3 Linecode=2c_.04 Length=5.1458 Units=m
New Line.LINE1488 Bus1=1485 Bus2=1489 phases=3 Linecode=2c_.04 Length=1.6821 Units=m
New Line.LINE1490 Bus1=1486 Bus2=1491 phases=3 Linecode=2c_.04 Length=4.9056 Units=m
New Line.LINECmpd_0 Bus1=1461 Bus2=1525 phases=3 Linecode=2c_.04 Length=15.36962 Units=m
New Line.LINECmpd_1 Bus1=458 Bus2=723 phases=3 Linecode=2c_.007 Length=9.716717 Units=m
New Line.LINECmpd_2 Bus1=211 Bus2=282 phases=3 Linecode=4_XC Length=1.33884 Units=m
New Line.LINECmpd_3 Bus1=1062 Bus2=1156 phases=3 Linecode=4_XSC Length=1.272812 Units=m
New Line.LINECmpd_4 Bus1=1278 Bus2=1388 phases=3 Linecode=2c_.04 Length=8.232838 Units=m
New Line.LINECmpd_5 Bus1=1044 Bus2=1170 phases=3 Linecode=2c_.04 Length=19.87153 Units=m
New Line.LINECmpd_6 Bus1=1290 Bus2=1418 phases=3 Linecode=2c_.04 Length=13.14885 Units=m
New Line.LINECmpd_7 Bus1=1437 Bus2=1486 phases=3 Linecode=2c_.04 Length=10.32635 Units=m
New Line.LINECmpd_8 Bus1=1148 Bus2=1218 phases=3 Linecode=2c_.04 Length=3.04463 Units=m
New Line.LINECmpd_9 Bus1=1243 Bus2=1278 phases=3 Linecode=2c_.04 Length=3.6524 Units=m
New Line.LINECmpd_10 Bus1=813 Bus2=1000 phases=3 Linecode=2c_.04 Length=17.72656 Units=m
New Line.LINECmpd_11 Bus1=538 Bus2=806 phases=3 Linecode=4_XSC Length=12.25666 Units=m
New Line.LINECmpd_12 Bus1=457 Bus2=649 phases=3 Linecode=2c_.04 Length=13.99566 Units=m
New Line.LINECmpd_13 Bus1=1323 Bus2=1423 phases=3 Linecode=2c_.04 Length=8.13876 Units=m
New Line.LINECmpd_14 Bus1=617 Bus2=770 phases=3 Linecode=2c_.04 Length=7.94768 Units=m
New Line.LINECmpd_15 Bus1=240 Bus2=422 phases=3 Linecode=4c_.3_SAC Length=19.57301 Units=m
New Line.LINECmpd_16 Bus1=490 Bus2=610 phases=3 Linecode=2c_.04 Length=5.48418 Units=m
New Line.LINECmpd_17 Bus1=1485 Bus2=1534 phases=3 Linecode=2c_.04 Length=14.839953 Units=m
New Line.LINECmpd_18 Bus1=237 Bus2=307 phases=3 Linecode=2c_.04 Length=6.79371 Units=m
New Line.LINECmpd_19 Bus1=97 Bus2=187 phases=3 Linecode=2c_.04 Length=8.84202 Units=m
New Line.LINECmpd_20 Bus1=948 Bus2=1044 phases=3 Linecode=2c_.04 Length=8.15672 Units=m
New Line.LINECmpd_21 Bus1=1022 Bus2=1090 phases=3 Linecode=2c_.04 Length=6.11291 Units=m
New Line.LINECmpd_22 Bus1=321 Bus2=397 phases=3 Linecode=2c_.04 Length=8.01495 Units=m
New Line.LINECmpd_23 Bus1=51 Bus2=97 phases=3 Linecode=2c_.04 Length=3.97698 Units=m
New Line.LINECmpd_24 Bus1=1074 Bus2=1289 phases=3 Linecode=4c_.06 Length=30.101273 Units=m
New Line.LINECmpd_25 Bus1=1 Bus2=43 phases=3 Linecode=3c_300_SAC_XC Length=57.282618 Units=m
New Line.LINECmpd_26 Bus1=1047 Bus2=1125 phases=3 Linecode=4c_.04 Length=16.60874 Units=m
New Line.LINECmpd_27 Bus1=279 Bus2=352 phases=3 Linecode=2c_.04 Length=8.21146 Units=m
New Line.LINECmpd_28 Bus1=640 Bus2=844 phases=3 Linecode=2c_.007 Length=9.35379 Units=m
New Line.LINECmpd_29 Bus1=862 Bus2=1024 phases=3 Linecode=2c_.04 Length=11.44483 Units=m
New Line.LINECmpd_30 Bus1=490 Bus2=752 phases=3 Linecode=2c_.04 Length=10.19677 Units=m
New Line.LINECmpd_31 Bus1=858 Bus2=1022 phases=3 Linecode=2c_.04 Length=8.39579 Units=m
New Line.LINECmpd_32 Bus1=1196 Bus2=1290 phases=3 Linecode=2c_.04 Length=11.518622 Units=m
New Line.LINECmpd_33 Bus1=1284 Bus2=1387 phases=3 Linecode=2c_.04 Length=9.13558 Units=m
New Line.LINECmpd_34 Bus1=881 Bus2=1036 phases=3 Linecode=4c_.06 Length=22.41156 Units=m
New Line.LINECmpd_35 Bus1=422 Bus2=898 phases=3 Linecode=4_XSC Length=14.359237 Units=m
New Line.LINECmpd_36 Bus1=154 Bus2=182 phases=3 Linecode=4c_16 Length=0.9929 Units=m
New Line.LINECmpd_37 Bus1=953 Bus2=1096 phases=3 Linecode=4_XSC Length=0.740385 Units=m
New Line.LINECmpd_38 Bus1=832 Bus2=1057 phases=3 Linecode=4_XSC Length=3.347584 Units=m
New Line.LINECmpd_39 Bus1=656 Bus2=892 phases=3 Linecode=4_XSC Length=4.11132 Units=m
New Line.LINECmpd_40 Bus1=1218 Bus2=1363 phases=3 Linecode=2c_.04 Length=11.87662 Units=m
New Line.LINECmpd_41 Bus1=440 Bus2=782 phases=3 Linecode=2c_.04 Length=24.13004 Units=m
New Line.LINECmpd_42 Bus1=161 Bus2=396 phases=3 Linecode=4_XSC Length=4.442164 Units=m
New Line.LINECmpd_43 Bus1=1387 Bus2=1461 phases=3 Linecode=2c_.04 Length=12.43988 Units=m
New Line.LINECmpd_44 Bus1=823 Bus2=945 phases=3 Linecode=2c_.04 Length=7.129699 Units=m
New Line.LINECmpd_45 Bus1=207 Bus2=383 phases=3 Linecode=2c_.04 Length=11.346017 Units=m
New Line.LINECmpd_46 Bus1=98 Bus2=188 phases=3 Linecode=2c_.04 Length=7.90992 Units=m
New Line.LINECmpd_47 Bus1=473 Bus2=503 phases=3 Linecode=4c_.12 Length=20.6004 Units=m
New Line.LINECmpd_48 Bus1=1388 Bus2=1475 phases=3 Linecode=2c_.04 Length=13.033913 Units=m
New Line.LINECmpd_49 Bus1=187 Bus2=382 phases=3 Linecode=2c_.04 Length=15.566996 Units=m
New Line.LINECmpd_50 Bus1=725 Bus2=853 phases=3 Linecode=2c_.04 Length=11.34234 Units=m
New Line.LINECmpd_51 Bus1=724 Bus2=915 phases=3 Linecode=2c_.04 Length=7.32606 Units=m
New Line.LINECmpd_52 Bus1=1197 Bus2=1326 phases=3 Linecode=2c_.04 Length=9.95853 Units=m
New Line.LINECmpd_53 Bus1=390 Bus2=492 phases=3 Linecode=2c_.04 Length=7.85955 Units=m
New Line.LINECmpd_54 Bus1=1074 Bus2=1148 phases=3 Linecode=2c_.04 Length=16.99533 Units=m
New Line.LINECmpd_55 Bus1=390 Bus2=465 phases=3 Linecode=2c_.04 Length=9.47056 Units=m
New Line.LINECmpd_56 Bus1=1148 Bus2=1200 phases=3 Linecode=2c_.04 Length=5.434946 Units=m
New Line.LINECmpd_57 Bus1=1326 Bus2=1438 phases=3 Linecode=2c_.04 Length=12.77822 Units=m
New Line.LINECmpd_58 Bus1=416 Bus2=539 phases=3 Linecode=4_XC Length=0.956864 Units=m
New Line.LINECmpd_59 Bus1=473 Bus2=590 phases=3 Linecode=4_XC Length=0.966991 Units=m
New Line.LINECmpd_60 Bus1=823 Bus2=932 phases=3 Linecode=25_PSC Length=5.12374 Units=m
New Line.LINECmpd_61 Bus1=192 Bus2=264 phases=3 Linecode=2c_.007 Length=1.91452 Units=m
New Line.LINECmpd_62 Bus1=953 Bus2=1062 phases=3 Linecode=4c_.06 Length=25.93187 Units=m
New Line.LINECmpd_63 Bus1=1288 Bus2=1408 phases=3 Linecode=2c_.04 Length=14.054081 Units=m
New Line.LINECmpd_64 Bus1=108 Bus2=173 phases=3 Linecode=2c_.04 Length=10.54764 Units=m
New Line.LINECmpd_65 Bus1=1125 Bus2=1196 phases=3 Linecode=2c_.04 Length=6.045155 Units=m
New Line.LINECmpd_66 Bus1=1036 Bus2=1240 phases=3 Linecode=4_XSC Length=5.520382 Units=m
New Line.LINECmpd_67 Bus1=544 Bus2=735 phases=3 Linecode=2c_.007 Length=4.979955 Units=m
New Line.LINECmpd_68 Bus1=770 Bus2=1100 phases=3 Linecode=2c_.04 Length=21.93453 Units=m
New Line.LINECmpd_69 Bus1=67 Bus2=154 phases=3 Linecode=4c_.25 Length=24.5528 Units=m
New Line.LINECmpd_70 Bus1=1047 Bus2=1243 phases=3 Linecode=4c_.06 Length=29.441873 Units=m
New Line.LINECmpd_71 Bus1=492 Bus2=564 phases=3 Linecode=2c_.04 Length=11.13588 Units=m
New Line.LINECmpd_72 Bus1=1289 Bus2=1358 phases=3 Linecode=2c_.04 Length=4.41046 Units=m
New Line.LINECmpd_73 Bus1=1486 Bus2=1528 phases=3 Linecode=2c_.04 Length=11.42466 Units=m
New Line.LINECmpd_74 Bus1=609 Bus2=797 phases=3 Linecode=4c_.06 Length=21.54794 Units=m
New Line.LINECmpd_75 Bus1=622 Bus2=691 phases=3 Linecode=2c_.04 Length=5.14951 Units=m
New Line.LINECmpd_76 Bus1=392 Bus2=440 phases=3 Linecode=2c_.04 Length=3.53963 Units=m
New Line.LINECmpd_77 Bus1=273 Bus2=408 phases=3 Linecode=4_XSC Length=1.88881 Units=m
New Line.LINECmpd_78 Bus1=881 Bus2=953 phases=3 Linecode=4c_.06 Length=5.05351 Units=m
New Line.LINECmpd_79 Bus1=592 Bus2=724 phases=3 Linecode=2c_.04 Length=3.43465 Units=m
New Line.LINECmpd_80 Bus1=1475 Bus2=1531 phases=3 Linecode=2c_.04 Length=11.39824 Units=m
New Line.LINECmpd_81 Bus1=109 Bus2=207 phases=3 Linecode=2c_.04 Length=8.095808 Units=m
New Line.LINECmpd_82 Bus1=945 Bus2=1077 phases=3 Linecode=2c_.04 Length=18.96491 Units=m
New Line.LINECmpd_83 Bus1=840 Bus2=1009 phases=3 Linecode=2c_.04 Length=6.927924 Units=m
New Line.LINECmpd_84 Bus1=202 Bus2=237 phases=3 Linecode=2c_.04 Length=6.1183 Units=m
New Line.LINECmpd_85 Bus1=59 Bus2=108 phases=3 Linecode=2c_.04 Length=5.0082 Units=m
New Line.LINECmpd_86 Bus1=389 Bus2=459 phases=3 Linecode=2c_.007 Length=1.71298 Units=m
New Line.LINECmpd_87 Bus1=1125 Bus2=1197 phases=3 Linecode=2c_.04 Length=3.58482 Units=m
New Line.LINECmpd_88 Bus1=59 Bus2=109 phases=3 Linecode=2c_.04 Length=7.548121 Units=m
New Line.LINECmpd_89 Bus1=457 Bus2=617 phases=3 Linecode=2c_.04 Length=7.01431 Units=m
New Line.LINECmpd_90 Bus1=1358 Bus2=1437 phases=3 Linecode=2c_.04 Length=6.63987 Units=m
New Line.LINECmpd_91 Bus1=832 Bus2=881 phases=3 Linecode=4c_.06 Length=25.12054 Units=m
New Line.LINECmpd_92 Bus1=54 Bus2=67 phases=3 Linecode=4c_.25 Length=15.72 Units=m
New Line.LINECmpd_93 Bus1=1243 Bus2=1284 phases=3 Linecode=2c_.04 Length=2.85129 Units=m
New Line.LINECmpd_94 Bus1=1022 Bus2=1230 phases=3 Linecode=2c_.04 Length=18.980297 Units=m
New Line.LINECmpd_95 Bus1=547 Bus2=800 phases=3 Linecode=2c_.04 Length=17.13623 Units=m
New Line.LINECmpd_96 Bus1=230 Bus2=340 phases=3 Linecode=4c_.25 Length=2.28183 Units=m
New Line.LINECmpd_97 Bus1=360 Bus2=547 phases=3 Linecode=2c_.04 Length=15.5242 Units=m
New Line.LINECmpd_98 Bus1=296 Bus2=392 phases=3 Linecode=2c_.04 Length=10.88752 Units=m
New Line.LINECmpd_99 Bus1=284 Bus2=360 phases=3 Linecode=2c_.04 Length=12.35227 Units=m
New Line.LINECmpd_100 Bus1=67 Bus2=204 phases=3 Linecode=4_XSC Length=7.017069 Units=m
New Line.LINECmpd_101 Bus1=45 Bus2=99 phases=3 Linecode=4_PSC Length=1.033249 Units=m
New Line.LINECmpd_102 Bus1=1363 Bus2=1441 phases=3 Linecode=2c_.04 Length=12.48781 Units=m
New Line.LINECmpd_103 Bus1=465 Bus2=527 phases=3 Linecode=2c_.04 Length=10.28319 Units=m
New Line.LINECmpd_104 Bus1=188 Bus2=348 phases=3 Linecode=2c_.04 Length=16.57002 Units=m
New Line.LINECmpd_105 Bus1=191 Bus2=269 phases=3 Linecode=2c_.04 Length=6.60306 Units=m
New Line.LINECmpd_106 Bus1=694 Bus2=948 phases=3 Linecode=2c_.04 Length=17.75291 Units=m
New Line.LINECmpd_107 Bus1=694 Bus2=858 phases=3 Linecode=2c_.04 Length=3.61595 Units=m
New Line.LINECmpd_108 Bus1=43 Bus2=71 phases=3 Linecode=4_XC Length=1.255313 Units=m
New Line.LINECmpd_109 Bus1=1423 Bus2=1485 phases=3 Linecode=2c_.04 Length=9.09104 Units=m
New Line.LINECmpd_110 Bus1=840 Bus2=933 phases=3 Linecode=25_PSC Length=5.27912 Units=m
New Line.LINECmpd_111 Bus1=1200 Bus2=1288 phases=3 Linecode=2c_.04 Length=11.19727 Units=m
New Line.LINECmpd_112 Bus1=309 Bus2=439 phases=3 Linecode=4_PC Length=1.59636 Units=m
New Line.LINECmpd_113 Bus1=357 Bus2=389 phases=3 Linecode=4c_.25 Length=1.31288 Units=m
New Line.LINECmpd_114 Bus1=649 Bus2=757 phases=3 Linecode=2c_.04 Length=7.32705 Units=m
New Line.LINECmpd_115 Bus1=915 Bus2=1140 phases=3 Linecode=2c_.04 Length=26.09478 Units=m
New Line.LINECmpd_116 Bus1=307 Bus2=414 phases=3 Linecode=2c_.04 Length=11.96312 Units=m
New Line.LINECmpd_117 Bus1=432 Bus2=483 phases=3 Linecode=2c_.04 Length=15.55822 Units=m
New Line.LINECmpd_118 Bus1=51 Bus2=98 phases=3 Linecode=2c_.04 Length=4.141891 Units=m
New Line.LINECmpd_119 Bus1=321 Bus2=398 phases=3 Linecode=2c_.04 Length=8.0103 Units=m
New Line.LINECmpd_120 Bus1=161 Bus2=177 phases=3 Linecode=4c_.25 Length=38.5347 Units=m
New Line.LINECmpd_121 Bus1=776 Bus2=840 phases=3 Linecode=2c_.04 Length=1.09313 Units=m
New Line.LINECmpd_122 Bus1=757 Bus2=943 phases=3 Linecode=2c_.04 Length=18.21874 Units=m
New Line.LINECmpd_123 Bus1=47 Bus2=54 phases=3 Linecode=4c_.25 Length=45.6272 Units=m
New Line.LINECmpd_124 Bus1=520 Bus2=592 phases=3 Linecode=4c_.04 Length=19.2592 Units=m
New Line.LINECmpd_125 Bus1=814 Bus2=862 phases=3 Linecode=2c_.04 Length=14.9238 Units=m
New Line.LINECmpd_126 Bus1=675 Bus2=710 phases=3 Linecode=4c_.12 Length=6.56439 Units=m
New Line.LINECmpd_127 Bus1=269 Bus2=385 phases=3 Linecode=2c_.04 Length=11.95737 Units=m
New Line.LINECmpd_128 Bus1=637 Bus2=725 phases=3 Linecode=2c_.04 Length=6.47779 Units=m
New Line.LINECmpd_129 Bus1=776 Bus2=823 phases=3 Linecode=2c_.04 Length=1.03516 Units=m
New Line.LINECmpd_130 Bus1=389 Bus2=416 phases=3 Linecode=4c_.25 Length=17.5854 Units=m
New Line.LINECmpd_131 Bus1=538 Bus2=609 phases=3 Linecode=4c_.12 Length=14.67047 Units=m
New Line.LINECmpd_132 Bus1=483 Bus2=684 phases=3 Linecode=2c_.04 Length=17.9505 Units=m
New Line.LINECmpd_133 Bus1=425 Bus2=461 phases=3 Linecode=2c_.04 Length=15.2468 Units=m
New Line.LINECmpd_134 Bus1=279 Bus2=351 phases=3 Linecode=2c_.04 Length=8.72513 Units=m
New Line.LINECmpd_135 Bus1=1289 Bus2=1323 phases=3 Linecode=2c_.04 Length=3.07338 Units=m
New Line.LINECmpd_136 Bus1=710 Bus2=776 phases=3 Linecode=4c_.04 Length=22.4931 Units=m
New Line.LINECmpd_137 Bus1=309 Bus2=357 phases=3 Linecode=4c_.25 Length=37.7242 Units=m
New Line.LINECmpd_138 Bus1=782 Bus2=815 phases=3 Linecode=2c_.04 Length=7.3863 Units=m
New Line.LINECmpd_139 Bus1=637 Bus2=707 phases=3 Linecode=25_PSC Length=4.47236 Units=m
New Line.LINECmpd_140 Bus1=503 Bus2=620 phases=3 Linecode=4c_.12 Length=1.42371 Units=m
New Line.LINECmpd_141 Bus1=211 Bus2=230 phases=3 Linecode=4c_.25 Length=16.3835 Units=m
New Line.LINECmpd_142 Bus1=524 Bus2=581 phases=3 Linecode=2c_.04 Length=6.14798 Units=m
New Line.LINECmpd_143 Bus1=524 Bus2=560 phases=3 Linecode=2c_.04 Length=3.8912 Units=m
New Line.LINECmpd_144 Bus1=609 Bus2=640 phases=3 Linecode=4c_.12 Length=11.72802 Units=m
New Line.LINECmpd_145 Bus1=436 Bus2=463 phases=3 Linecode=4c_.25 Length=14.5738 Units=m
New Line.LINECmpd_146 Bus1=177 Bus2=192 phases=3 Linecode=4c_.25 Length=30.0578 Units=m
New Line.LINECmpd_147 Bus1=177 Bus2=191 phases=3 Linecode=2c_.04 Length=6.36419 Units=m
New Line.LINECmpd_148 Bus1=240 Bus2=273 phases=3 Linecode=4c_.25 Length=27.3318 Units=m
New Line.LINECmpd_149 Bus1=357 Bus2=390 phases=3 Linecode=2c_.04 Length=9.65465 Units=m
New Line.LINECmpd_150 Bus1=592 Bus2=622 phases=3 Linecode=2c_.04 Length=6.45 Units=m
New Line.LINECmpd_151 Bus1=463 Bus2=507 phases=3 Linecode=4c_.25 Length=16.0213 Units=m
New Line.LINECmpd_152 Bus1=463 Bus2=490 phases=3 Linecode=2c_.04 Length=7.5534 Units=m
New Line.LINECmpd_153 Bus1=507 Bus2=544 phases=3 Linecode=4c_.25 Length=5.888 Units=m
New Line.LINECmpd_154 Bus1=436 Bus2=462 phases=3 Linecode=2c_.04 Length=11.6902 Units=m
